OPT_V10/Two_days_first_run/powerflow_results_t34.txt
Pandapower Network Debug Info
==================================================

BUS:
       vm_pu  va_degree      p_mw    q_mvar
0   0.997173   0.318095 -0.001135  0.001090
1   0.995650   0.516354 -0.000934  0.002008
2   0.993909   0.677133 -0.000302  0.002835
3   0.994774   0.472961  0.000272  0.004227
4   0.993544   0.347558  0.000739  0.004437
5   0.995247   0.288399  0.001636  0.005971
6   0.995646   0.372695 -0.001097  0.000819
7   0.998969   0.106758 -0.000516  0.002253
8   0.998697   0.076290 -0.000311  0.003240
9   0.999855   0.001624  0.008920  0.010248
10  0.999861   0.001559  0.008730  0.007919
11  0.999876   0.001435  0.010574  0.009105
12  0.999804   0.003820  0.009252  0.006843
13  0.999777   0.004164  0.010117  0.011183
14  0.999786   0.004072  0.012228  0.014034
15  0.999945   0.001018  0.000000  0.000000
16  0.999945   0.001024  0.000000  0.000000
17  0.999809   0.003828  0.000000  0.000000
18  0.999809   0.003838  0.000000  0.000000
19  1.000000   0.000000 -0.026233 -0.042502
20  1.000000   0.000006  0.000000  0.000000
21  1.000000   0.000000 -0.032155 -0.053848
22  1.000000   0.000007  0.000000  0.000000
--------------------------------------------------

LINE:
    p_from_mw  q_from_mvar   p_to_mw  q_to_mvar         pl_mw       ql_mvar  i_from_ka   i_to_ka      i_ka  vm_from_pu  va_from_degree  vm_to_pu  va_to_degree  loading_percent
0    0.026223     0.038502 -0.026221  -0.038501  2.122635e-06  1.655053e-06   0.001793  0.001793  0.001793    1.000000        0.000006  0.999945      0.001018         0.779577
1    0.032145     0.049848 -0.032135  -0.049840  9.463182e-06  7.378599e-06   0.002283  0.002283  0.002283    1.000000        0.000007  0.999809      0.003828         0.992598
2    0.028226     0.027274 -0.028224  -0.027272  2.131262e-06  1.661780e-06   0.001511  0.001511  0.001511    0.999945        0.001018  0.999876      0.001435         0.656874
3    0.009252     0.006843 -0.009252  -0.006843  4.581497e-08  3.572269e-08   0.000443  0.000443  0.000443    0.999809        0.003828  0.999804      0.003820         0.192618
4    0.022345     0.025218 -0.022345  -0.025217  6.209756e-07  4.841849e-07   0.001297  0.001297  0.001297    0.999809        0.003828  0.999786      0.004072         0.563957
5   -0.002014     0.010227  0.002065  -0.010187  5.082201e-05  3.962676e-05   0.015046  0.015046  0.015046    0.999945        0.001024  0.997173      0.318095         6.541603
6    0.000577     0.006820 -0.000541  -0.006792  3.635750e-05  2.834854e-05   0.009881  0.009881  0.009881    0.999809        0.003838  0.995247      0.288399         4.296045
7   -0.000513     0.002256  0.000516  -0.002253  3.616653e-06  2.819964e-06   0.003340  0.003340  0.003340    0.999809        0.003838  0.998969      0.106758         1.451971
8    0.000463     0.007705 -0.000453  -0.007697  1.024793e-05  7.990476e-06   0.011143  0.011143  0.011143    0.999809        0.003838  0.998697      0.076290         4.844893
9    0.008920     0.010248 -0.008920  -0.010248  6.385278e-08  4.978707e-08   0.000523  0.000523  0.000523    0.999861        0.001559  0.999855      0.001624         0.227396
10   0.017650     0.018168 -0.017650  -0.018167  3.138535e-07  2.447168e-07   0.000975  0.000975  0.000975    0.999876        0.001435  0.999861      0.001559         0.423935
11   0.010117     0.011183 -0.010117  -0.011183  1.112686e-07  8.675799e-08   0.000581  0.000581  0.000581    0.999786        0.004072  0.999777      0.004164         0.252419
12   0.001229    -0.004849 -0.001214   0.004860  1.493262e-05  1.164321e-05   0.007251  0.007251  0.007251    0.995650        0.516354  0.997173      0.318095         3.152800
13  -0.000272    -0.004227  0.000284   0.004237  1.210762e-05  9.440509e-06   0.006146  0.006146  0.006146    0.994774        0.472961  0.997173      0.318095         2.672362
14   0.000302    -0.002835 -0.000294   0.002840  7.440938e-06  5.801822e-06   0.004140  0.004140  0.004140    0.993909        0.677133  0.995650      0.516354         1.799859
15   0.000764     0.004456 -0.000739  -0.004437  2.493975e-05  1.944593e-05   0.006535  0.006535  0.006535    0.998697        0.076290  0.993544      0.347558         2.841163
16   0.001097    -0.000819 -0.001095   0.000821  1.645954e-06  1.283378e-06   0.001985  0.001985  0.001985    0.995646        0.372695  0.995247      0.288399         0.862871
--------------------------------------------------

TRAFO:
    p_hv_mw  q_hv_mvar   p_lv_mw  q_lv_mvar    pl_mw  ql_mvar   i_hv_ka   i_lv_ka  vm_hv_pu  va_hv_degree  vm_lv_pu  va_lv_degree  loading_percent
0 -0.002004   0.011227  0.002014  -0.010227  0.00001    0.001  0.000439  0.015046  0.999945      0.001018  0.999945      0.001024         0.114049
1  0.000538   0.017780 -0.000528  -0.016781  0.00001    0.001  0.000685  0.024237  0.999809      0.003828  0.999809      0.003838         0.177917
2  0.026233   0.042502 -0.026223  -0.038502  0.00001    0.004  0.000412  0.001793  1.000000      0.000000  1.000000      0.000006         0.124866
3  0.032155   0.053848 -0.032145  -0.049848  0.00001    0.004  0.000517  0.002283  1.000000      0.000000  1.000000      0.000007         0.156794
--------------------------------------------------
